/*--------------------------------*- C++ -*----------------------------------*\
| =========                 |                                                 |
| \\      /  F ield         | OpenFOAM: The Open Source CFD Toolbox           |
|  \\    /   O peration     | Version:  1.7.1                                 |
|   \\  /    A nd           | Web:      www.OpenFOAM.com                      |
|    \\/     M anipulation  |                                                 |
\*---------------------------------------------------------------------------*/
FoamFile
{
    version     2.0;
    format      binary;
    class       dictionary;
    location    "system";
    object      controlDict;
}
// * * * * * * * * * * * * * * * * * * * * * * * * * * * * * * * * * * * * * //

application     reactingFoam;

startFrom       latestTime;

startTime       0;

stopAt          endTime;

endTime         3.0;

deltaT          1e-5;

writeControl    adjustableRunTime;

writeInterval   1e-2;

purgeWrite      5;

writeFormat     ascii;

writePrecision  12;

writeCompression uncompressed;

timeFormat      general;

timePrecision   9;

runTimeModifiable yes;

adjustTimeStep  yes;

maxCo           0.1;

// ************************************************************************* //

libs (
      "libOpenFOAM.so"
      "libsimpleSwakFunctionObjects.so"
      "libswakFunctionObjects.so"
      "libgroovyBC.so"
     );
