/*--------------------------------*- C++ -*----------------------------------*\
| =========                 |                                                 |
| \\      /  F ield         | OpenFOAM: The Open Source CFD Toolbox           |
|  \\    /   O peration     | Version:  2.2.2                                 |
|   \\  /    A nd           | Web:      www.OpenFOAM.org                      |
|    \\/     M anipulation  |                                                 |
\*---------------------------------------------------------------------------*/
FoamFile
{
    version     2.2;
    format      ascii;
    class       dictionary;
    location    "system";
    object      fvSchemes;
}
// * * * * * * * * * * * * * * * * * * * * * * * * * * * * * * * * * * * * * //

ddtSchemes
{
    default         Euler;
}

gradSchemes
{
    default         Gauss linear;
}

divSchemes
{
    default         			none;

    div(phi,U)      			Gauss upwind;
    div(phi,T)      			Gauss upwind;
    div(phi,zMix)      			Gauss upwind;
    div(phi,tau)      			Gauss upwind;
    div(phi,Yi)     			Gauss limitedLinear01 1;
    div(Jc,Yi)                          Gauss limitedLinear01 1;
    div(phiU,p)                         Gauss upwind;
    div((gas_mu*dev2(grad(U).T()))) 	Gauss linear;
    div(phi,HMOM_Norm_N0)               Gauss upwind;
    div(phi,HMOM_Norm_M00)              Gauss upwind;
    div(phi,HMOM_Norm_M10)               Gauss upwind;
    div(phi,HMOM_Norm_M01)              Gauss upwind;    

}

laplacianSchemes
{
    default         Gauss linear orthogonal;
}

interpolationSchemes
{
    default         linear;
}

snGradSchemes
{
    default         orthogonal;
}

fluxRequired
{
    default         no;
    p_rgh             ;
}


// ************************************************************************* //
