/*--------------------------------*- C++ -*----------------------------------*\
| =========                 |                                                 |
| \\      /  F ield         | OpenFOAM: The Open Source CFD Toolbox           |
|  \\    /   O peration     | Version:  1.7.1                                 |
|   \\  /    A nd           | Web:      www.OpenFOAM.com                      |
|    \\/     M anipulation  |                                                 |
\*---------------------------------------------------------------------------*/
FoamFile
{
    version     2.0;
    format      binary;
    class       dictionary;
    location    "system";
    object      controlDict;
}
// * * * * * * * * * * * * * * * * * * * * * * * * * * * * * * * * * * * * * //

application     	laminarBuoyantPimpleSMOKE;

startFrom       	latestTime;

startTime       	0;

stopAt          	endTime;

endTime         	1.0;

deltaT          	1e-6;

writeControl    	adjustableRunTime;

writeInterval   	1e-2;

purgeWrite      	3;

writeFormat     	ascii;

writePrecision  	12;

writeCompression 	uncompressed;

timeFormat      	general;

timePrecision   	9;

runTimeModifiable 	yes;

adjustTimeStep  	yes;

maxCo           	0.1;

// ************************************************************************* //

libs (
      "libOpenFOAM.so"
     );
