! 
! CRECK Modeling Group (Politecnico di Milano)
! http://creckmodeling.chem.polimi.it/
! Version 1311, November 2013
!
THERMO
  300.   1000.   4000.
HE                      HE  1               G    300.00   4000.00 1000.00      1
 .250000000E+01 .000000000E+00 .000000000E+00 .000000000E+00 .000000000E+00    2
-.745375000E+03 .928723974E+00 .250000000E+01 .000000000E+00 .000000000E+00    3
 .000000000E+00 .000000000E+00-.745375000E+03 .928723974E+00                   4
AR                      AR  1               G    300.00   4000.00 1000.00      1
 .250000000E+01 .000000000E+00 .000000000E+00 .000000000E+00 .000000000E+00    2
-.745375000E+03 .436600000E+01 .250000000E+01 .000000000E+00 .000000000E+00    3
 .000000000E+00 .000000000E+00-.745375000E+03 .436600000E+01                   4
N2                      N   2               G    300.00   4000.00 1000.00      1
 .292663788E+01 .148797700E-02-.568476030E-06 .100970400E-09-.675335090E-14    2
-.922795384E+03 .598054018E+01 .329867700E+01 .140823990E-02-.396322180E-05    3
 .564151480E-08-.244485400E-11-.102090000E+04 .395037200E+01                   4
NO                      O   1N   1          G    300.00   4000.00 1000.00      1
 .324543589E+01 .126913800E-02-.501589000E-06 .916928270E-10-.627541890E-14    2
 .980084032E+04 .641728767E+01 .337654100E+01 .125306300E-02-.330275000E-05    3
 .521781020E-08-.244626190E-11 .981796100E+04 .582959200E+01                   4
N2O                     O   1N   2          G    300.00   4000.00 1000.00      1
 .471897567E+01 .287371290E-02-.119749600E-05 .225055100E-09-.157533690E-13    2
 .816581343E+04-.165723704E+01 .254305700E+01 .949219330E-02-.979277500E-05    3
 .626384410E-08-.190182510E-11 .876510200E+04 .951122400E+01                   4
O2                      O   2               G    300.00   4000.00 1000.00      1
 .369757685E+01 .613519690E-03-.125884200E-06 .177528100E-10-.113643500E-14    2
-.123392966E+04 .318917125E+01 .321293600E+01 .112748610E-02-.575614990E-06    3
 .131387700E-08-.876855390E-12-.100524900E+04 .603473900E+01                   4
NO2                     O   2N   1          G    300.00   4000.00 1000.00      1
 .468285677E+01 .246242900E-02-.104225900E-05 .197690200E-09-.139171700E-13    2
 .226129300E+04 .988610659E+00 .267060000E+01 .783849970E-02-.806386380E-05    3
 .616171380E-08-.232014990E-11 .289629000E+04 .116120700E+02                   4
HNO                     H   1O   1N   1     G    300.00   4000.00 1000.00      1
 .361514436E+01 .321248500E-02-.126033690E-05 .226729700E-09-.153623600E-13    2
 .106619122E+05 .481025325E+01 .278440200E+01 .660964610E-02-.930022270E-05    3
 .943798020E-08-.375314580E-11 .109187800E+05 .903562900E+01                   4
HNNO                    H   1O   1N   2     G    300.00   4000.00 1500.00      1
 .699121930E+01 .187597000E-02-.212458400E-06-.671047200E-10 .123050800E-13    2
 .249756641E+05-.112352384E+02 .223829800E+01 .135920000E-01-.117987300E-04    3
 .539297100E-08-.101085900E-11 .266025900E+05 .141367900E+02                   4
HONO                    H   1O   2N   1     G    300.00   4000.00 1000.00      1
 .548688978E+01 .421806500E-02-.164914300E-05 .297187700E-09-.202114800E-13    2
-.112686489E+05-.299698546E+01 .229041300E+01 .140992200E-01-.136787200E-04    3
 .749878000E-08-.187690500E-11-.104319500E+05 .132807700E+02                   4
HNO2                    H   1O   2N   1     G    300.00   4000.00 1500.00      1
 .647962840E+01 .199527400E-02-.174038700E-06-.969587200E-10 .170148000E-13    2
-.999926943E+04-.106728455E+02 .193483800E+01 .101003600E-01-.496461600E-05    3
 .870112000E-09-.232413500E-14-.810548400E+04 .147325000E+02                   4
HONO2                   H   1O   3N   1     G    300.00   4000.00 1500.00      1
 .975613289E+01 .190094800E-02-.324002000E-06-.397663900E-10 .110033400E-13    2
-.194224157E+05-.269001236E+02 .787766800E+00 .238232900E-01-.220596400E-04    3
 .103404800E-07-.197285700E-11-.163044200E+05 .210896400E+02                   4
H2                      H   2               G    300.00   4000.00 1000.00      1
 .299142220E+01 .700064410E-03-.563382800E-07-.923157820E-11 .158275200E-14    2
-.835033546E+03-.135510641E+01 .329812400E+01 .824944120E-03-.814301470E-06    3
-.947543430E-10 .413487200E-12-.101252100E+04-.329409400E+01                   4
N2H2                    H   2N   2          G    300.00   4000.00 1000.00      1
 .337118994E+01 .603996800E-02-.230385300E-05 .406278900E-09-.271314400E-13    2
 .241817095E+05 .498055769E+01 .161799940E+01 .130631220E-01-.171571100E-04    3
 .160560790E-07-.609363800E-11 .246752600E+05 .137946700E+02                   4
H2O                     H   2O   1          G    300.00   4000.00 1000.00      1
 .267214569E+01 .305629290E-02-.873026070E-06 .120099600E-09-.639161790E-14    2
-.298992115E+05 .686281125E+01 .338684200E+01 .347498200E-02-.635469590E-05    3
 .696858040E-08-.250658800E-11-.302081100E+05 .259023200E+01                   4
H2O2                    H   2O   2          G    300.00   4000.00 1000.00      1
 .457316594E+01 .433613590E-02-.147468900E-05 .234890300E-09-.143165410E-13    2
-.180069531E+05 .501137915E+00 .338875300E+01 .656922580E-02-.148501200E-06    3
-.462580510E-08 .247151410E-11-.176631400E+05 .678536300E+01                   4
NH3                     H   3N   1          G    300.00   4000.00 1000.00      1
 .246189456E+01 .605916650E-02-.200497610E-05 .313600310E-09-.193831700E-13    2
-.649326483E+04 .747215046E+01 .220435100E+01 .101147600E-01-.146526500E-04    3
 .144723500E-07-.532850890E-11-.652548900E+04 .812714000E+01                   4
N2H4                    H   4N   2          G    300.00   4000.00 1000.00      1
 .497732211E+01 .959551900E-02-.354763900E-05 .612429900E-09-.402979500E-13    2
 .934121983E+04-.296302077E+01 .644260600E-01 .274973000E-01-.289945100E-04    3
 .174524000E-07-.442228200E-11 .104519200E+05 .212778900E+02                   4
CO                      C   1O   1          G    300.00   4000.00 1000.00      1
 .302507617E+01 .144268900E-02-.563082720E-06 .101858100E-09-.691095110E-14    2
-.142683499E+05 .610822521E+01 .326245100E+01 .151194100E-02-.388175520E-05    3
 .558194380E-08-.247495100E-11-.143105400E+05 .484889700E+01                   4
CO2                     C   1O   2          G    300.00   4000.00 1000.00      1
 .445362582E+01 .314016800E-02-.127841100E-05 .239399610E-09-.166903300E-13    2
-.489669524E+05-.955420007E+00 .227572400E+01 .992207230E-02-.104091100E-04    3
 .686668590E-08-.211728010E-11-.483731400E+05 .101884900E+02                   4
HCN                     C   1H   1N   1     G    300.00   4000.00 1000.00      1
 .365007798E+01 .346099790E-02-.127427900E-05 .221765490E-09-.147717700E-13    2
 .149839102E+05 .239321426E+01 .249046200E+01 .861127950E-02-.103103400E-04    3
 .748149810E-08-.222910900E-11 .152083400E+05 .790498000E+01                   4
HOCN                    C   1H   1O   1N   1G    300.00   4000.00 1000.00      1
 .564560836E+01 .229820610E-02-.216262900E-06-.121480100E-09 .223863610E-13    2
-.317811025E+04-.359027798E+01 .362829200E+01 .566418420E-02-.117020600E-06    3
-.234863800E-08 .801640220E-12-.247592500E+04 .747682300E+01                   4
HCNO                    C   1H   1O   1N   1G    300.00   4000.00 1000.00      1
 .669241213E+01 .236836030E-02-.237151000E-06-.127550300E-09 .240713700E-13    2
 .169473623E+05-.124543537E+02 .318485800E+01 .975231640E-02-.128020300E-05    3
-.616310380E-08 .322627490E-11 .179790700E+05 .612384200E+01                   4
HNCO                    C   1H   1O   1N   1G    300.00   4000.00 1000.00      1
 .621186395E+01 .229713690E-02-.221612790E-06-.122204400E-09 .227240590E-13    2
-.147707257E+05-.801661658E+01 .369405900E+01 .665723530E-02-.505446810E-07    3
-.347341090E-08 .136056900E-11-.139197600E+05 .571273900E+01                   4
CH2O                    C   1H   2O   1     G    300.00   4000.00 1000.00      1
 .299560858E+01 .668132120E-02-.262895400E-05 .473715290E-09-.321251710E-13    2
-.153203666E+05 .691256052E+01 .165273100E+01 .126314400E-01-.188816790E-04    3
 .205003110E-07-.841323710E-11-.148654000E+05 .137848200E+02                   4
HCOOH                   C   1H   2O   2     G    300.00   4000.00 1376.00      1
 .668733013E+01 .514289368E-02-.182238513E-05 .289719163E-09-.170892199E-13    2
-.483995400E+05-.113104798E+02 .143548185E+01 .163363016E-01-.106257421E-04    3
 .332132977E-08-.402176103E-12-.464616504E+05 .172885798E+02                   4
HCO3H                   C   1H   2O   3     G    300.00   4000.00 1378.00      1
 .987503581E+01 .464663708E-02-.167230522E-05 .268624413E-09-.159595232E-13    2
-.380502456E+05-.224938942E+02 .242464726E+01 .219706380E-01-.168705546E-04    3
 .625612194E-08-.911645843E-12-.354828006E+05 .175027796E+02                   4
CH3NO                   C   1H   3O   1N   1G    300.00   4000.00 1500.00      1
 .882055478E+01 .370623300E-02-.289474100E-06-.189791000E-09 .323754400E-13    2
 .536285603E+04-.221322539E+02 .210995500E+01 .151782200E-01-.707178900E-05    3
 .151061100E-08-.160420400E-12 .829361200E+04 .156970200E+02                   4
CH3ONO                  C   1H   3O   2N   1G    300.00   4000.00 1500.00      1
 .113612738E+02 .415934900E-02-.414567000E-06-.169514000E-09 .302873200E-13    2
-.128147952E+05-.354542296E+02 .149034500E+01 .264543300E-01-.211233200E-04    3
 .941439900E-08-.181120500E-11-.912578200E+04 .181376600E+02                   4
CH3NO2                  C   1H   3O   2N   1G    300.00   4000.00 1382.00      1
 .750407068E+01 .952121946E-02-.327760562E-05 .508678596E-09-.294455378E-13    2
-.121591399E+05-.115088778E+02-.370775080E+00 .283702793E-01-.208339624E-04    3
 .808980673E-08-.130521082E-11-.945681543E+04 .306459151E+02                   4
CH3ONO2                 C   1H   3O   3N   1G    300.00   4000.00 1500.00      1
 .143618741E+02 .411224300E-02-.511305200E-06-.149643600E-09 .301215600E-13    2
-.197243835E+05-.513183467E+02 .780335400E+00 .345420400E-01-.282232800E-04    3
 .123232400E-07-.230216400E-11-.146534600E+05 .224575200E+02                   4
CH4                     C   1H   4          G    300.00   4000.00 1000.00      1
 .168346564E+01 .102372400E-01-.387512820E-05 .678558490E-09-.450342310E-13    2
-.100807773E+05 .962347575E+01 .778741700E+00 .174766800E-01-.278340900E-04    3
 .304970800E-07-.122393100E-10-.982522800E+04 .137221900E+02                   4
CH3OH                   C   1H   4O   1     G    300.00   4000.00 1000.00      1
 .402907793E+01 .937659290E-02-.305025380E-05 .435879300E-09-.222472310E-13    2
-.261579223E+05 .237808255E+01 .266011500E+01 .734150780E-02 .717005010E-05    3
-.879319370E-08 .239056990E-11-.253534800E+05 .112326300E+02                   4
CH3OOH                  C   1H   4O   2     G    300.00   4000.00 1000.00      1
 .563694993E+01 .111814780E-01-.369593390E-05 .407189810E-09 .000000000E+00    2
-.180442749E+05-.124166637E+01 .586865100E+01 .107942400E-01-.364552990E-05    3
 .541291180E-09-.289684390E-13-.181268900E+05-.251762300E+01                   4
C2H2                    C   2H   2          G    300.00   4000.00 1000.00      1
 .443677300E+01 .537603910E-02-.191281610E-05 .328637890E-09-.215670900E-13    2
 .256676622E+05-.280035722E+01 .201356200E+01 .151904500E-01-.161631910E-04    3
 .907899180E-08-.191274600E-11 .261244400E+05 .880537800E+01                   4
CH2CO                   C   2H   2O   1     G    300.00   4000.00 1000.00      1
 .603885318E+01 .580484000E-02-.192095400E-05 .279448500E-09-.145886800E-13    2
-.858343402E+04-.765782305E+01 .297497100E+01 .121187100E-01-.234504600E-05    3
-.646668500E-08 .390564900E-11-.763263700E+04 .867355300E+01                   4
C2H2O2                  C   2H   2O   2     G    300.00   4000.00 1386.00      1
 .975438561E+01 .497645947E-02-.174410483E-05 .275586994E-09-.161969892E-13    2
-.295832896E+05-.261878329E+02 .188105120E+01 .236386368E-01-.183443295E-04    3
 .684842963E-08-.992733674E-12-.269280190E+05 .159154793E+02                   4
CH3CN                   C   2H   3N   1     G    300.00   4000.00 1000.00      1
 .239240386E+01 .156188730E-01-.791204970E-05 .193723330E-08-.186119560E-12    2
 .849993803E+04 .111452402E+02 .251975310E+01 .135675230E-01-.257640770E-05    3
-.308939670E-08 .142886920E-11 .855337620E+04 .109208680E+02                   4
C2H4                    C   2H   4          G    300.00   4000.00 1000.00      1
 .352841648E+01 .114851800E-01-.441838480E-05 .784460000E-09-.526684780E-13    2
 .442829030E+04 .223039249E+01-.861487900E+00 .279616190E-01-.338867690E-04    3
 .278515200E-07-.973787890E-11 .557304700E+04 .242114800E+02                   4
CH3CHO                  C   2H   4O   1     G    300.00   4000.00 1000.00      1
 .586869116E+01 .107942400E-01-.364552990E-05 .541291180E-09-.289684390E-13    2
-.226457128E+05-.601321650E+01 .250569500E+01 .133699100E-01 .467195290E-05    3
-.112814000E-07 .426356610E-11-.212458800E+05 .133508900E+02                   4
C2H4O                   C   2H   4O   1     G    300.00   4000.00 1000.00      1
 .385543260E+01 .146081760E-01-.526121540E-05 .628115500E-09 .000000000E+00    2
-.851874300E+04 .214156911E+01-.130385500E+01 .282461720E-01-.170593430E-04    3
 .394753470E-08 .000000000E+00-.707559900E+04 .289352600E+02                   4
CH3OCHO                 C   2H   4O   2     G    300.00   4000.00 1686.00      1
 .869123518E+01 .115503122E-01-.427782486E-05 .702533059E-09-.424333552E-13    2
-.464364769E+05-.189301478E+02 .308839783E+01 .203760048E-01-.684777040E-05    3
-.728186203E-09 .562130216E-12-.441855167E+05 .125364719E+02                   4
C2H4O2                  C   2H   4O   2     G    300.00   4000.00 1358.00      1
 .887306567E+01 .992257253E-02-.334820779E-05 .515546009E-09-.297527820E-13    2
-.410084739E+05-.182786314E+02 .437688685E+01 .159485358E-01-.363672718E-05    3
-.179212805E-08 .741898956E-12-.389689472E+05 .750888268E+01                   4
CH3COOH                 C   2H   4O   2     G    300.00   4000.00 1000.00      1
 .691666936E+01 .128920800E-01-.420990320E-05 .458049540E-09 .000000000E+00    2
-.553508487E+05-.102392103E+02 .846928500E+00 .292145000E-01-.186455200E-04    3
 .464098720E-08 .000000000E+00-.536761800E+05 .211901500E+02                   4
C2-OQOOH                C   2H   4O   3     G    300.00   4000.00 1380.00      1
 .124064339E+02 .947233784E-02-.328107928E-05 .513772211E-09-.299872803E-13    2
-.349123142E+05-.339479874E+02 .552382546E+01 .242068306E-01-.152898974E-04    3
 .501728362E-08-.696406358E-12-.323406789E+05 .357240645E+01                   4
CH3CO3H                 C   2H   4O   3     G    300.00   4000.00 1000.00      1
 .114777196E+02 .831667150E-02-.185084560E-05 .103274160E-09 .000000000E+00    2
-.451075908E+05-.290204723E+02 .484746000E+01 .218580610E-01-.904284660E-05    3
 .384145300E-09 .000000000E+00-.429209100E+05 .674072600E+01                   4
DME-OQOOH               C   2H   4O   4     G    300.00   4000.00 1000.00      1
 .114777196E+02 .831667150E-02-.185084560E-05 .103274160E-09 .000000000E+00    2
-.451075908E+05-.290204723E+02 .484746000E+01 .218580610E-01-.904284660E-05    3
 .384145300E-09 .000000000E+00-.429209100E+05 .674072600E+01                   4
C2H6                    C   2H   6          G    300.00   4000.00 1000.00      1
 .482597579E+01 .138404300E-01-.455725790E-05 .672496720E-09-.359816110E-13    2
-.127178296E+05-.523976258E+01 .146253900E+01 .154946700E-01 .578050690E-05    3
-.125783200E-07 .458626710E-11-.112391800E+05 .144322900E+02                   4
CH3OCH3                 C   2H   6O   1     G    300.00   4000.00 1368.00      1
 .827732656E+01 .132135539E-01-.453264362E-05 .705316507E-09-.409933283E-13    2
-.261980897E+05-.215181376E+02 .150763450E+01 .239914228E-01-.868910500E-05    3
-.966835762E-10 .489319361E-12-.232810894E+05 .167317297E+02                   4
C2H5OH                  C   2H   6O   1     G    300.00   4000.00 1000.00      1
 .434717120E+01 .186288000E-01-.677946700E-05 .816592600E-09 .000000000E+00    2
-.306615743E+05 .324247304E+01 .576535800E+00 .289451200E-01-.161002000E-04    3
 .359164100E-08 .000000000E+00-.296359500E+05 .227081300E+02                   4
C2H5OOH                 C   2H   6O   2     G    300.00   4000.00 1000.00      1
 .914611907E+01 .144611400E-01-.455120020E-05 .475780030E-09 .000000000E+00    2
-.236690607E+05-.205899250E+02 .223998300E+01 .310914290E-01-.170933710E-04    3
 .329379790E-08 .000000000E+00-.216018500E+05 .158174300E+02                   4
GLIET                   C   2H   6O   2     G    300.00   4000.00 1401.00      1
 .936137341E+01 .139727496E-01-.460325193E-05 .696470779E-09-.396758376E-13    2
-.507704265E+05-.211659058E+02 .875442184E+00 .347430045E-01-.244109224E-04    3
 .942412745E-08-.152824605E-11-.479084203E+05 .240879974E+02                   4
C3H2                    C   3H   2          G    300.00   4000.00 1000.00      1
 .767099642E+01 .274874900E-02-.437094300E-06-.645559900E-10 .166388700E-13    2
 .625972092E+05-.123689926E+02 .316671400E+01 .248257200E-01-.459163700E-04    3
 .426801900E-07-.148215200E-10 .635042100E+05 .886944600E+01                   4
PC3H4                   C   3H   4          G    300.00   4000.00 1000.00      1
 .281460543E+01 .185524496E-01-.955026768E-05 .239951370E-08-.237485257E-12    2
 .207010771E+05 .860604972E+01 .146175323E+01 .246026602E-01-.190219395E-04    3
 .860363422E-08-.166729240E-11 .209209793E+05 .149262585E+02                   4
AC3H4                   C   3H   4          G    300.00   4000.00 1400.07      1
 .977625145E+01 .530213820E-02-.370111790E-06-.302638610E-09 .508958110E-13    2
 .195497314E+05-.307705909E+02 .253983090E+01 .163343700E-01-.176495000E-05    3
-.464736520E-08 .172913110E-11 .225124300E+05 .993570230E+01                   4
C2H3CHO                 C   3H   4O   1     G    300.00   4000.00 1393.00      1
 .104184607E+02 .948963321E-02-.329310529E-05 .516279203E-09-.301587291E-13    2
-.149629790E+05-.307232511E+02 .292355162E+00 .354321417E-01-.294936324E-04    3
 .128100124E-07-.226144108E-11-.116521584E+05 .228878280E+02                   4
C3H4O2                  C   3H   4O   2     G    300.00   4000.00 1404.00      1
 .130577477E+02 .906905120E-02-.308189261E-05 .476481380E-09-.275669277E-13    2
-.369274825E+05-.425273740E+02 .147485987E+00 .464706296E-01-.451901760E-04    3
 .219641008E-07-.416219125E-11-.331809255E+05 .242182934E+02                   4
C3H4O3                  C   3H   4O   3     G    300.00   4000.00 1388.00      1
 .137530675E+02 .108054207E-01-.364230159E-05 .560730953E-09-.323659923E-13    2
-.577839662E+05-.401019465E+02 .208981535E+01 .383715226E-01-.282590499E-04    3
 .104299134E-07-.153140407E-11-.538199819E+05 .223338530E+02                   4
C3H6                    C   3H   6          G    300.00   4000.00 1000.00      1
 .673231663E+01 .149083400E-01-.494989900E-05 .721202210E-09-.376620390E-13    2
-.923623057E+03-.133137684E+02 .149330700E+01 .209251700E-01 .448679380E-05    3
-.166891190E-07 .715814600E-11 .107482600E+04 .161453400E+02                   4
C3H6O                   C   3H   6O   1     G    300.00   4000.00 1000.00      1
 .433142310E+01 .236433890E-01-.875060690E-05 .106889830E-08 .000000000E+00    2
-.138496111E+05 .215169726E+01 .507423500E+00 .318789710E-01-.137497700E-04    3
 .165647900E-08 .000000000E+00-.126239100E+05 .226350900E+02                   4
CH3COCH3                C   3H   6O   1     G    300.00   4000.00 1374.00      1
 .991426580E+01 .146030709E-01-.506085765E-05 .792682855E-09-.462739645E-13    2
-.311168055E+05-.286116537E+02 .130767163E+01 .292021742E-01-.119045617E-04    3
 .652150087E-09 .467751203E-12-.275328269E+05 .196395025E+02                   4
C3H5OH                  C   3H   6O   1     G    300.00   4000.00 1000.00      1
 .665875100E+01 .179008100E-01-.612801520E-05 .983706560E-09-.609475850E-13    2
-.187194550E+05-.446185680E+01 .332545570E+01 .251539630E-01-.163055650E-04    3
 .121609030E-07-.500807290E-11-.174250940E+05 .139104030E+02                   4
C2H5CHO                 C   3H   6O   1     G    300.00   4000.00 1378.00      1
 .102429148E+02 .139641989E-01-.476248001E-05 .738105706E-09-.427759503E-13    2
-.274145137E+05-.285357348E+02 .216308444E+01 .295501264E-01-.152446252E-04    3
 .349503947E-08-.238896627E-12-.242260137E+05 .161153348E+02                   4
C3H5OOH                 C   3H   6O   2     G    300.00   4000.00 1382.00      1
 .139268456E+02 .135384067E-01-.474335693E-05 .748389157E-09-.439105886E-13    2
-.132537727E+05-.456757848E+02 .221491505E+01 .390935107E-01-.258809564E-04    3
 .870894601E-08-.120793929E-11-.896037969E+04 .179425329E+02                   4
C3H6O2                  C   3H   6O   2     G    300.00   4000.00 1382.00      1
 .118936666E+02 .144153203E-01-.477525443E-05 .726036430E-09-.415285995E-13    2
-.459271652E+05-.327285750E+02 .266613285E+01 .346302298E-01-.214380719E-04    3
 .690469334E-08-.916939105E-12-.425706030E+05 .173358364E+02                   4
ACETOL                  C   3H   6O   2     G    300.00   4000.00 1390.00      1
 .110277409E+02 .156022896E-01-.518498789E-05 .789604263E-09-.452017356E-13    2
-.493518932E+05-.296460029E+02 .170110573E+01 .349995386E-01-.195672111E-04    3
 .513929120E-08-.454830190E-12-.458857790E+05 .212715964E+02                   4
C3-OQOOH                C   3H   6O   3     G    300.00   4000.00 1391.00      1
 .170285271E+02 .130716784E-01-.459310856E-05 .726135156E-09-.426658337E-13    2
-.416334217E+05-.592513577E+02 .768933034E+00 .546905880E-01-.465072405E-04    3
 .203159585E-07-.358398999E-11-.363238861E+05 .268291637E+02                   4
C3H8                    C   3H   8          G    300.00   4000.00 1000.00      1
 .752530602E+01 .188903400E-01-.628392400E-05 .917937280E-09-.481240960E-13    2
-.164646226E+05-.178445202E+02 .896921000E+00 .266898590E-01 .543142510E-05    3
-.212600000E-07 .924333010E-11-.139549200E+05 .193553300E+02                   4
IC3H7OH                 C   3H   8O   1     G    300.00   4000.00 1000.00      1
 .577239007E+01 .268947430E-01-.111795290E-04 .211392460E-08-.149320990E-12    2
-.361710675E+05-.384089810E+01-.176838920E+00 .452559560E-01-.319190720E-04    3
 .123062880E-07-.201412540E-11-.346643940E+05 .263322250E+02                   4
NC3H7OH                 C   3H   8O   1     G    300.00   4000.00 1396.00      1
 .107520626E+02 .180260472E-01-.603049401E-05 .922166246E-09-.529319319E-13    2
-.361555719E+05-.310977038E+02 .978207214E-01 .420500918E-01-.267066894E-04    3
 .903941170E-08-.128324751E-11-.323437836E+05 .264700804E+02                   4
C3H7OOH                 C   3H   8O   2     G    300.00   4000.00 1388.00      1
 .150655849E+02 .170865595E-01-.593183927E-05 .930136673E-09-.543384935E-13    2
-.301371140E+05-.515057998E+02 .783525746E+00 .504826223E-01-.365089942E-04    3
 .140377750E-07-.226737156E-11-.251105573E+05 .253041175E+02                   4
GLYCEROL                C   3H   8O   3     G    300.00   4000.00 1413.00      1
 .142234482E+02 .188282751E-01-.593875071E-05 .871197709E-09-.485331087E-13    2
-.753882525E+05-.411276527E+02 .214180274E+00 .584817984E-01-.493063032E-04    3
 .223333179E-07-.405800253E-11-.712682818E+05 .315639747E+02                   4
C4H2                    C   4H   2          G    300.00   4000.00 1000.00      1
 .903147468E+01 .604725210E-02-.194878790E-05 .275486300E-09-.138560800E-13    2
 .529472934E+05-.238511290E+02 .400519100E+01 .198100000E-01-.986587660E-05    3
-.663515820E-08 .607741290E-11 .542406400E+05 .184573600E+01                   4
C4H4                    C   4H   4          G    300.00   4000.00 1000.00      1
 .665080310E+01 .161294300E-01-.719388700E-05 .149817800E-08-.118641100E-12    2
 .311958636E+05-.979559836E+01-.191524700E+01 .527508700E-01-.716559400E-04    3
 .550724200E-07-.172862200E-10 .329785000E+05 .314199800E+02                   4
C4H4O                   C   4H   4O   1     G    300.00   4000.00 1000.00      1
 .135912211E+02 .987450910E-02-.345325238E-05 .544429808E-09-.319349896E-13    2
-.115639534E+05-.542513644E+02-.750030326E+01 .699899868E-01-.695485649E-04    3
 .333968809E-07-.619467883E-11-.541634292E+04 .550218432E+02                   4
CH2CCHCHO               C   4H   4O   1     G    300.00   4000.00 1000.00      1
 .929991052E+01 .152201510E-01-.615883937E-05 .112678366E-08-.769359137E-13    2
 .368009609E+04-.220663746E+02 .123852148E+01 .356054647E-01-.236786887E-04    3
 .592234361E-08 .282885884E-12 .610569242E+04 .202911558E+02                   4
C4H6                    C   4H   6          G    300.00   4000.00 1000.00      1
 .823794980E+01 .173695890E-01-.615923200E-05 .979908060E-09-.578075590E-13    2
 .923259930E+04-.203418190E+02 .112443850E+00 .343711770E-01-.111106630E-04    3
-.921096660E-08 .620841700E-11 .118022620E+05 .230917180E+02                   4
IC3H5CHO                C   4H   6O   1     G    300.00   4000.00 1396.00      1
 .136175682E+02 .137917192E-01-.473370118E-05 .736655226E-09-.420097974E-13    2
-.199994281E+05-.472987367E+02 .627183793E+00 .466780254E-01-.374430631E-04    3
 .158330542E-07-.273952155E-11-.157203117E+05 .216034294E+02                   4
C4H6O2                  C   4H   6O   2     G    300.00   4000.00 1375.00      1
 .135393551E+02 .168328392E-01-.587873230E-05 .925553795E-09-.542254877E-13    2
-.462482008E+05-.437360830E+02 .182538964E+01 .377978336E-01-.172044878E-04    3
 .195698878E-08 .398612932E-12-.415126261E+05 .214925508E+02                   4
MACRIL                  C   4H   6O   2     G    300.00   4000.00 1000.00      1
 .962595080E+01 .202069860E-01-.684948550E-05 .109063620E-08-.671284990E-13    2
-.414857110E+05-.177414250E+02-.929250120E+00 .565245670E-01-.531143270E-04    3
 .263405850E-07-.484636380E-11-.390243280E+05 .347643170E+02                   4
NC4H8                   C   4H   8          G    300.00   4000.00 1000.00      1
 .205358410E+01 .343505070E-01-.158831970E-04 .330896620E-08-.253610450E-12    2
-.213972310E+04 .155432010E+02 .118113800E+01 .308533800E-01 .508652470E-05    3
-.246548880E-07 .111101930E-10-.179040040E+04 .210624690E+02                   4
IC4H8                   C   4H   8          G    300.00   4000.00 1388.00      1
 .112258330E+02 .181795798E-01-.620348592E-05 .961444458E-09-.557088057E-13    2
-.769983777E+04-.373306704E+02 .938433173E+00 .390547287E-01-.216437148E-04    3
 .587267077E-08-.614435479E-12-.374817891E+04 .191442985E+02                   4
C4H8O                   C   4H   8O   1     G    300.00   4000.00 1371.00      1
 .154228514E+02 .170211052E-01-.606347951E-05 .967354762E-09-.571992419E-13    2
-.220196123E+05-.613882135E+02-.253690104E+01 .543995707E-01-.343390305E-04    3
 .101079922E-07-.110262736E-11-.152980680E+05 .367400719E+02                   4
MEK                     C   4H   8O   1     G    300.00   4000.00 1000.00      1
 .929655016E+01 .229172746E-01-.822048591E-05 .132404838E-08-.791751980E-13    2
-.334442311E+05-.204993263E+02 .661978185E+01 .851847835E-02 .510322077E-04    3
-.658433042E-07 .249110484E-10-.315251691E+05-.109485469E+01                   4
C4H7OH                  C   4H   8O   1     G    300.00   4000.00 1000.00      1
 .863167950E+01 .241150480E-01-.832957180E-05 .134433130E-08-.835340300E-13    2
-.230779140E+05-.163015210E+02 .173864090E+01 .369849060E-01-.680297030E-05    3
-.128647340E-07 .662652570E-11-.209184180E+05 .207395880E+02                   4
C3H7CHO                 C   4H   8O   1     G    300.00   4000.00 1000.00      1
 .885754490E+01 .242627260E-01-.846559850E-05 .137561310E-08-.858588980E-13    2
-.294816840E+05-.174775160E+02 .666312930E+00 .477311800E-01-.329931100E-04    3
 .121733550E-07-.165405020E-11-.272346390E+05 .246936170E+02                   4
IC3H7CHO                C   4H   8O   1     G    300.00   4000.00 1391.00      1
 .137503148E+02 .183126722E-01-.628572629E-05 .978250756E-09-.568538653E-13    2
-.326938845E+05-.477281342E+02-.273021382E+00 .489696307E-01-.312770049E-04    3
 .100052945E-07-.127512074E-11-.276054737E+05 .283451139E+02                   4
NC4-OQOOH               C   4H   8O   3     G    300.00   4000.00 1388.00      1
 .195955254E+02 .180568312E-01-.629994700E-05 .991157547E-09-.580382406E-13    2
-.461054913E+05-.709333761E+02 .243440296E+01 .605409309E-01-.481250984E-04    3
 .203656751E-07-.357059537E-11-.402872220E+05 .205488821E+02                   4
IC4-OQOOH               C   4H   8O   3     G    300.00   4000.00 1390.00      1
 .195047991E+02 .181701803E-01-.634838146E-05 .999797067E-09-.585883751E-13    2
-.450007951E+05-.705122130E+02 .549934041E+00 .642751153E-01-.501779820E-04    3
 .203546231E-07-.338767418E-11-.385647626E+05 .307013051E+02                   4
KEHYBU1                 C   4H   8O   4     G    300.00   4000.00 1396.00      1
 .219367270E+02 .180406285E-01-.626171080E-05 .981855896E-09-.573639516E-13    2
-.664546784E+05-.813588272E+02-.445736457E+01 .947202096E-01-.937478682E-04    3
 .464802131E-07-.899314409E-11-.587131282E+05 .551970961E+02                   4
NC4H10                  C   4H  10          G    300.00   4000.00 1000.00      1
 .105251152E+02 .235908740E-01-.785389060E-05 .114561140E-08-.599309560E-13    2
-.204952316E+05-.321928008E+02 .157641510E+01 .345897230E-01 .697016090E-05    3
-.281636370E-07 .123751170E-10-.171470040E+05 .178727420E+02                   4
IC4H10                  C   4H  10          G    300.00   4000.00 1000.00      1
 .508434390E+01 .331851280E-01-.124047670E-04 .152753620E-08 .000000000E+00    2
-.195243797E+05-.392308050E+01-.128398800E+01 .519486400E-01-.308267920E-04    3
 .755438110E-08 .000000000E+00-.179038400E+05 .285063500E+02                   4