/*---------------------------------------------------------------------------*\               
| =========                 |                                                 |                
| \\      /  F ield         | OpenFOAM: The Open Source CFD Toolbox           |                
|  \\    /   O peration     | Version:  1.0                                   |                
|   \\  /    A nd           | Web:      http://www.openfoam.org               |                
|    \\/     M anipulation  |                                                 |                
\*---------------------------------------------------------------------------*/                
                                        
FoamFile                                
{                                       
    version         2.0;                
    format          ascii;              
                                        
    root            "";               
    case            "";               
    instance        "";               
    local           "";               
                                        
    class           dictionary;         
    object          blockMeshDict;      
}          


convertToMeters 0.001;

H1    0.;
H2   20.;
H3   50.;
H4  150.;

r1   1.95;
x1   1.94814403208462E+00;
y1p  8.49768491789667E-02;
y1m -8.49768491789667E-02;

r2   2.45;
x2   2.44766814287555E+00;
y2p  1.06765784865881E-01;
y2m -1.06765784865881E-01;

r3   10.;
x3   9.9904822158185800E+00;
y3p  4.3577871373829100E-01;
y3m -4.3577871373829100E-01;

r4   25.;
x4   2.49762055395464E+01;
y4p  1.08944678434573E+00;
y4m -1.08944678434573E+00;

r5   70.;
x5   6.99333755107300E+01;
y5p  3.05045099616804E+00;
y5m -3.05045099616804E+00;
                   
vertices                                
(                                       
   (0. 		0.  		$H1 )   // 0
   ($x1 	$y1p      	$H1 )   // 1
   ($x1 	$y1m    	$H1 )   // 2
   ($x2 	$y2p            $H1 )   // 3
   ($x2 	$y2m            $H1 )   // 4
   ($x3 	$y3p            $H1 )   // 5
   ($x3 	$y3m            $H1 )   // 6
   ($x4 	$y4p      	$H1 )   // 7
   ($x4 	$y4m    	$H1 )   // 8
   ($x5 	$y5p      	$H1 )   // 9
   ($x5 	$y5m    	$H1 )   // 10

   (0. 		0.  		$H2 )   // 11
   ($x1 	$y1p      	$H2 )   // 12
   ($x1 	$y1m    	$H2 )   // 13
   ($x2 	$y2p            $H2 )   // 14
   ($x2 	$y2m            $H2 )   // 15
   ($x3 	$y3p            $H2 )   // 16
   ($x3 	$y3m            $H2 )   // 27
   ($x4 	$y4p      	$H2 )   // 38
   ($x4 	$y4m    	$H2 )   // 39
   ($x5 	$y5p      	$H2 )   // 20
   ($x5 	$y5m    	$H2 )   // 21

   (0. 		0.  		$H3 )   // 22
   ($x1 	$y1p      	$H3 )   // 23
   ($x1 	$y1m    	$H3 )   // 24
   ($x2 	$y2p            $H3 )   // 25
   ($x2 	$y2m            $H3 )   // 26
   ($x3 	$y3p            $H3 )   // 27
   ($x3 	$y3m            $H3 )   // 28
   ($x4 	$y4p      	$H3 )   // 39
   ($x4 	$y4m    	$H3 )   // 30
   ($x5 	$y5p      	$H3 )   // 31
   ($x5 	$y5m    	$H3 )   // 32

   (0. 		0.  		$H4 )   // 33
   ($x1 	$y1p      	$H4 )   // 34
   ($x1 	$y1m    	$H4 )   // 35
   ($x2 	$y2p            $H4 )   // 36
   ($x2 	$y2m            $H4 )   // 37
   ($x3 	$y3p            $H4 )   // 38
   ($x3 	$y3m            $H4 )   // 39
   ($x4 	$y4p            $H4 )   // 40
   ($x4 	$y4m            $H4 )   // 41
   ($x5 	$y5p            $H4 )   // 42
   ($x5 	$y5m            $H4 )   // 43
);

Nax2 10;
Nax3  7;
Nax4  5;

Nrad1  3;
Nrad2  1;
Nrad3  5;
Nrad4  2;
Nrad5  2;

gradAx1 1;
gradAx2 1;
gradAx3 1;
gradAx4 2;

gradRad1 1;
gradRad2 1;
gradRad3 3;
gradRad4 1;
gradRad5 1;

blocks
( 	
	// Fuel
	hex (0 2 1 0 11 13 12 11)           ($Nrad1  1 $Nax2 )  simpleGrading   ($gradRad1  1.  $gradAx2)
	hex (11 13 12 11 22 24 23 22)       ($Nrad1  1 $Nax3 )  simpleGrading   ($gradRad1  1.  $gradAx3)
	hex (22 24 23 22 33 35 34 33)       ($Nrad1  1 $Nax4 )  simpleGrading   ($gradRad1  1.  $gradAx4)

	// Internal wall
	hex (2 4 3 1 13 15 14 12)          ($Nrad2  1 $Nax2 )  simpleGrading   ($gradRad2  1.  $gradAx2)
	hex (13 15 14 12 24 26 25 23)      ($Nrad2  1 $Nax3 )  simpleGrading   ($gradRad2  1.  $gradAx3)
	hex (24 26 25 23 35 37 36 34)      ($Nrad2  1 $Nax4 )  simpleGrading   ($gradRad2  1.  $gradAx4)

	// Coflow: internal
	hex (4 6 5 3 15 17 16 14)        ($Nrad3  1 $Nax2 )  simpleGrading   ($gradRad3  1.  $gradAx2)
	hex (15 17 16 14 26 28 27 25)    ($Nrad3  1 $Nax3 )  simpleGrading   ($gradRad3  1.  $gradAx3)
	hex (26 28 27 25 37 39 38 36)    ($Nrad3  1 $Nax4 )  simpleGrading   ($gradRad3  1.  $gradAx4)

	// Coflow: central
	hex (6 8 7 5 17 19 18 16)          ($Nrad4  1 $Nax2 )  simpleGrading   ($gradRad4  1.  $gradAx2)
	hex (17 19 18 16 28 30 29 27)      ($Nrad4  1 $Nax3 )  simpleGrading   ($gradRad4  1.  $gradAx3)
	hex (28 30 29 27 39 41 40 38)      ($Nrad4  1 $Nax4 )  simpleGrading   ($gradRad4  1.  $gradAx4)
	
	// Coflow: external
	hex (8 10 9 7 19 21 20 18)         ($Nrad5  1 $Nax2 )  simpleGrading   ($gradRad5  1.  $gradAx2)
	hex (19 21 20 18 30 32 31 29)      ($Nrad5  1 $Nax3 )  simpleGrading   ($gradRad5  1.  $gradAx3)
	hex (30 32 31 29 41 43 42 40)      ($Nrad5  1 $Nax4 )  simpleGrading   ($gradRad5  1.  $gradAx4)
);
                                     
edges                                
(      
	arc 2 1   ( $r1 0 $H1)
	arc 13 12 ( $r1 0 $H2)
	arc 24 23 ( $r1 0 $H3)
	arc 35 34 ( $r1 0 $H4)

	arc 4 3   ( $r2 0 $H1)
	arc 15 14 ( $r2 0 $H2)
	arc 26 25 ( $r2 0 $H3)
	arc 37 36 ( $r2 0 $H4)

	arc 6  5  ( $r3 0 $H1)
	arc 17 16 ( $r3 0 $H2)
	arc 28 27 ( $r3 0 $H3)                         
	arc 39 38 ( $r3 0 $H4) 

	arc 8  7  ( $r4 0 $H1)
	arc 19 18 ( $r4 0 $H2)
	arc 30 29 ( $r4 0 $H3)
	arc 41 40 ( $r4 0 $H4)  

	arc 10 9  ( $r5 0 $H1)
	arc 21 20 ( $r5 0 $H2)
	arc 32 31 ( $r5 0 $H3)
	arc 43 42 ( $r5 0 $H4)                      
);    

boundary               
(
        fuelInlet           
        {
            type patch;    
            faces
            (
                (1 2 0 0)
            );
        }           
	burnerWall          
        {
            type wall;    
            faces
            (
                (1 3 4 2)
		(7 9 10 8)
            );
        }  
	axis          
        {
            type empty;    
            faces
            (
               	(11 0 0 11)
		(11 22 22 11)
		(22 33 33 22)
            );
        } 

	leftSide          
        {
            type patch;    
            faces
            (
                (20 21 10 9)
        	(31 32 21 20)
		(42 43 32 31)
            );
        }  
	outlet          
        {
            type patch;    
            faces
            (
		(33 35 34 33)
		(34 35 37 36)
                (38 36 37 39)
		(40 38 39 41)
                (42 40 41 43)
            );
        } 
	coflowInlet          
        {
            type patch;    
            faces
            (
                (3 5 6 4)
		(5 7 8 6)
            );
        }   

	front          
        {
            type wedge;    
            faces
            (
                (13 11 0 2)                                    
		(24 22 11 13)
		(35 33 22 24)
		(15 13 2 4)
		(26 24 13 15) 
		(37 35 24 26)
		(17 15 4 6)
		(28 26 15 17)
		(39 37 26 28)
		(19 17 6 8)
		(30 28 17 19)
		(41 39 28 30)
		(21 19 8 10)
		(32 30 19 21)
		(43 41 30 32)
            );
        } 

	back       
        {
            type wedge;    
            faces
            (
                (1 0 11 12)                                    
		(12 11 22 23)
		(23 22 33 34)
		(3 1 12 14)
		(14 12 23 25)
		(25 23 34 36)
		(5 3 14 16)
		(16 14 25 27)   
		(27 25 36 38)
		(7 5 16 18)
		(18 16 27 29)
		(29 27 38 40)
		(9 7 18 20)
		(20 18 29 31)
		(31 29 40 42)
            );
        }                                    
);                                   
                                     
mergePatchPairs                      
(                                    
);                                   
                                                                  
                      

                             
          
	

        
                           
                                        

