/*--------------------------------*- C++ -*----------------------------------*\
| =========                 |                                                 |
| \\      /  F ield         | OpenFOAM: The Open Source CFD Toolbox           |
|  \\    /   O peration     | Version:  2.3.x                                 |
|   \\  /    A nd           | Web:      www.OpenFOAM.org                      |
|    \\/     M anipulation  |                                                 |
\*---------------------------------------------------------------------------*/
FoamFile
{
    version     2.0;
    format      ascii;
    class       volScalarField;
    location    "0";
    object      p;
}
// * * * * * * * * * * * * * * * * * * * * * * * * * * * * * * * * * * * * * //

dimensions      [1 -1 -2 0 0 0 0];

internalField   uniform 101325.;

boundaryField
{
    fuelInlet
    {
        type            fixedFluxPressure;
        value           $internalField;
    }
    coflowInlet
    {
        type            fixedFluxPressure;
        value           $internalField;
    }
    burnerWall
    {
        type            fixedFluxPressure;
        value           $internalField;
    }
    outlet
    {
        type            fixedFluxPressure;
        value           $internalField;
    }
    leftSide
    {
        type            totalPressure;
        p0              $internalField;
        U               U;
        phi             phi;
        rho             rho;
        psi             none;
        gamma           0;
        value           $internalField;
    }
    axis
    {
	type		empty;
    }
    front
    {
        type            wedge;
    }
    back
    {
        type            wedge;
    }
}


// ************************************************************************* //
