/*--------------------------------*- C++ -*----------------------------------*\
| =========                 |                                                 |
| \\      /  F ield         | OpenFOAM: The Open Source CFD Toolbox           |
|  \\    /   O peration     | Version:  2.2.2                                 |
|   \\  /    A nd           | Web:      www.OpenFOAM.org                      |
|    \\/     M anipulation  |                                                 |
\*---------------------------------------------------------------------------*/
FoamFile
{
    version     2.2;
    format      ascii;
    class       dictionary;
    location    "system";
    object      fvSolution;
}
// * * * * * * * * * * * * * * * * * * * * * * * * * * * * * * * * * * * * * //

solvers
{
    "(rho|rhoFinal)"
    {
        solver              PCG;
        preconditioner      DIC;
        tolerance           1e-7;
        relTol              0;
    };

    p
    {
        solver                GAMG;
        tolerance             1e-7;
        relTol                0.01;
        smoother              GaussSeidel;
        cacheAgglomeration    true;
        nCellsInCoarsestLevel 20;
        agglomerator          faceAreaPair;
        mergeLevels           1;
    };

    pFinal
    {
        solver                GAMG;
        tolerance             1e-6;
        relTol                0;
        smoother              GaussSeidel;
        cacheAgglomeration    true;
        nCellsInCoarsestLevel 20;
        agglomerator          faceAreaPair;
        mergeLevels           1;
    };

    U
    {
        solver          PBiCGStab;
        preconditioner  DILU;
        tolerance       1e-8;
        relTol          0.01;
        nSweeps         1;
    }

    UFinal
    {
        solver          PBiCGStab;
        preconditioner  DILU;
        tolerance       1e-9;
        relTol          0;
        nSweeps         1;
    }

    T
    {
        solver          PBiCGStab;
        preconditioner  DILU;
        tolerance       1e-8;
        relTol          0.01;
        nSweeps         1;
    }

    TFinal
    {
        solver          PBiCGStab;
        preconditioner  DILU;
        tolerance       1e-9;
        relTol          0;
        nSweeps         1;
    }


    Yi
    {
        solver          PBiCGStab;
        preconditioner  DILU;
        tolerance       1e-9;
        relTol          0;
	minIter		1;
    }

    zMix
    {
        solver          PBiCGStab;
        preconditioner  DILU;
        tolerance       1e-8;
        relTol          0;
	minIter		1;
    }

    tau
    {
        solver          PBiCGStab;
        preconditioner  DILU;
        tolerance       1e-8;
        relTol          0;
	minIter		1;
    }

    Ii
    {
        solver                  GAMG;
        tolerance               1e-4;
        relTol                  0.1;
        smoother                symGaussSeidel;
        cacheAgglomeration      true;
        nCellsInCoarsestLevel   10;
        agglomerator            faceAreaPair;
        mergeLevels             1;
        maxIter                 3;
        nPreSweeps              0;
        nPostSweeps             1;
    }

    "(G)Final"
    {
        solver          PCG;
        preconditioner  DIC;
        tolerance       1e-04;
        relTol          0;
    }
}

PIMPLE
{
    momentumPredictor         yes;
    nOuterCorrectors          1;
    nCorrectors               2;
    nNonOrthogonalCorrectors  0;
}

relaxationFactors
{
    fields
    {
    }
    equations
    {
        default	1;
    }
}


// ************************************************************************* //
