/*--------------------------------*- C++ -*----------------------------------*\
| =========                 |                                                 |
| \\      /  F ield         | OpenFOAM: The Open Source CFD Toolbox           |
|  \\    /   O peration     | Version:  2.2.2                                 |
|   \\  /    A nd           | Web:      www.OpenFOAM.org                      |
|    \\/     M anipulation  |                                                 |
\*---------------------------------------------------------------------------*/
FoamFile
{
    version     2.0;
    format      ascii;
    class       dictionary;
    location    "system";
    object      fvSchemes;
}
// * * * * * * * * * * * * * * * * * * * * * * * * * * * * * * * * * * * * * //

ddtSchemes
{
    default         steadyState;
}

gradSchemes
{
    default         Gauss linear;
}

divSchemes
{
    default         			none;

    div(phi,U)      			bounded Gauss upwind;
    div(phi,T)      			bounded Gauss upwind;
    div(phi,zMix)      			bounded Gauss upwind;
    div(phi,tau)      			bounded Gauss upwind;
    div(phi,Yi)     			Gauss limitedLinear01 1;
    div(Jc,Yi)                          bounded Gauss limitedLinear01 1;
    div(phiU,p)                         Gauss upwind;
    div((gas_mu*dev2(grad(U).T()))) 	Gauss linear;

}

laplacianSchemes
{
    default         Gauss linear orthogonal;
}

interpolationSchemes
{
    default         linear;
}

snGradSchemes
{
    default         orthogonal;
}

fluxRequired
{
    default         no;
    p                 ;
}


// ************************************************************************* //
