/*--------------------------------*- C++ -*----------------------------------*\
| =========                 |                                                 |
| \\      /  F ield         | OpenFOAM: The Open Source CFD Toolbox           |
|  \\    /   O peration     | Version:  2.2.0                                 |
|   \\  /    A nd           | Web:      www.OpenFOAM.org                      |
|    \\/     M anipulation  |                                                 |
\*---------------------------------------------------------------------------*/
FoamFile
{
    version     2.3;
    format      ascii;
    class       dictionary;
    location    "constant";
    object      solverOptions;
}
// * * * * * * * * * * * * * * * * * * * * * * * * * * * * * * * * * * * * * //

Kinetics
{
	folder	   		"../../../kinetic-mechanisms/GLOBAL_CH4_1step/kinetics/";
	inertSpecies 		N2;
}

SteadyState
{
	sparseJacobian		false;
	jacobianUpdate		1;
	propertiesUpdate	1;
	implicitSourceTerm 	true;
	orderSpecies		"sweep";
	exceptionalSpecies	(N2);
}

PhysicalModel
{
	strangAlgorithm 		"MomentumTransportReaction";
	homogeneousReactions 		on;
	momentumEquations		on;
	energyEquation			on;
	speciesEquations		on;
	constPressureBatchReactor 	true;

	massDiffusionInEnergyEquation	on;
	diffusivityCorrection		"semi-implicit";
	diffusivityModel		"multi-component";
	soretEffect			off;
	thermophoreticEffect		off;

	includeDpDt			on;
	thermodynamicPressure		101325.;

	tauEquation			on;
	zMixEquation			on;
	zMixDmixSpecies			N2;

	minTemperature4Chemistry	200.;
}

Output
{
	formationRates		off;
	diffusivities		off;
	gasProperties		off;
	gasRadiation		off;
}

PolimiSoot
{
	physicalSootDiffusivity off;
	physicalSootDiffusivityIndex 10;
	thermophoreticEffectTag "BIN";
}

OdeHomogeneous
{
	odeSolver 	"OpenSMOKE";
	relTolerance 	1e-6;
	absTolerance 	1e-12;
	maximumOrder 	5;
	fullPivoting 	true;
}

PostProcessing
{
	moleFractions	off;
	concentrations	off;
	mixtureFraction	off;
	soot		off;
}

Spark
{
	spark 		on;
	position    	(2e-3 0.0 3e-3);
	time		0.;
	temperature 	2000;
	duration 	0.01;
	diameter 	3.e-3;
}

#include "isatOptions"

#include "lewisNumbers"

#include "drgOptions"

VirtualChemistry
{
	virtualChemistry	off;
}

// ************************************************************************* //
