/*--------------------------------*- C++ -*----------------------------------*\
| =========                 |                                                 |
| \\      /  F ield         | OpenFOAM: The Open Source CFD Toolbox           |
|  \\    /   O peration     | Version:  1.7.1                                 |
|   \\  /    A nd           | Web:      www.OpenFOAM.com                      |
|    \\/     M anipulation  |                                                 |
\*---------------------------------------------------------------------------*/
FoamFile
{
    version     2.0;
    format      acii;
    class       dictionary;
    location    "constant";
    object      drgOptions;
}
// * * * * * * * * * * * * * * * * * * * * * * * * * * * * * * * * * * * * * //

DRG
{
        drg     	off;
        minTemperature  300;
        temperature     1000. 3000.;
        epsilon         0.01  0.001;
        species         (H2 N2 OH);
}

// ************************************************************************* //
